Version 4
SHEET 1 880 680
SYMBOL AutoGenerated\\TL08X 112 160 R0
SYMATTR InstName U1
SYMBOL AutoGenerated\\TL08X 560 160 R0
SYMATTR InstName U2
