Version 4
SHEET 1 1048 680
WIRE -160 -192 -160 -208
WIRE -32 -192 -160 -192
WIRE -160 -176 -160 -192
WIRE -32 -144 -32 -192
WIRE -160 -80 -160 -96
WIRE 368 -48 368 -80
WIRE -32 -32 -32 -64
WIRE -32 -32 -96 -32
WIRE -32 -16 -32 -32
WIRE 368 48 368 16
WIRE 448 48 368 48
WIRE 720 48 672 48
WIRE -160 80 -160 16
WIRE -32 80 -32 64
WIRE 448 112 416 112
WIRE 736 112 672 112
WIRE -608 144 -608 96
WIRE -400 144 -400 112
WIRE 416 144 416 112
WIRE 416 144 368 144
WIRE 416 176 416 144
WIRE 448 176 416 176
WIRE 736 176 672 176
WIRE 448 240 400 240
WIRE 720 240 672 240
WIRE -608 272 -608 224
WIRE -400 272 -400 224
WIRE 976 304 976 272
FLAG -400 112 Vcc
FLAG -400 272 0
FLAG 400 240 Vcc
FLAG 720 48 Vcc
FLAG 720 240 0
FLAG -32 80 0
FLAG 368 -80 0
FLAG 368 144 Vo
FLAG 976 208 Vo
FLAG 976 304 0
FLAG 736 176 Trigger
FLAG 736 112 OUT
FLAG -608 272 0
FLAG -608 96 Trigger
FLAG -160 -208 Vcc
FLAG -160 80 Vo
SYMBOL Misc\\NE555 560 144 R180
SYMATTR InstName U1
SYMBOL voltage -400 128 R0
WINDOW 123 0 0 Left 0
WINDOW 39 0 0 Left 0
SYMATTR InstName V1
SYMATTR Value 15
SYMBOL pnp -96 16 R180
SYMATTR InstName Q1
SYMATTR Value BC856B
SYMBOL res -176 -192 R0
SYMATTR InstName R1
SYMATTR Value 2.86k
SYMBOL cap 352 -48 R0
SYMATTR InstName C1
SYMATTR Value 10n
SYMBOL cap 960 208 R0
SYMATTR InstName C2
SYMATTR Value 10µ
SYMBOL voltage -608 128 R0
WINDOW 3 -379 105 Left 2
WINDOW 123 0 0 Left 0
WINDOW 39 0 0 Left 0
SYMATTR Value PULSE(15 0 100u 1p 1p 100u 3m 1)
SYMATTR InstName V2
SYMBOL res -48 -32 R0
SYMATTR InstName R2
SYMATTR Value 100k
SYMBOL res -48 -160 R0
SYMATTR InstName R3
SYMATTR Value 200k
TEXT -640 328 Left 2 !.tran 0 10 0 100u
